<routes>
            <vType accel="2.5" decel="4.5" id="car" length="4.5" minGap="2.5" maxSpeed="25" sigma="0.5" guiShape="passenger"/>
            <vType accel="3.0" decel="5.0" id="motorbike" length="2.0" minGap="1.5" maxSpeed="18" sigma="0.3" guiShape="motorcycle"/>
            <vType accel="1.0" decel="2.0" id="bicycle" length="1.8" minGap="1.0" maxSpeed="6" sigma="0.2" guiShape="bicycle"/>

            <route id="W_N" edges="W2TL TL2N"/>
            <route id="W_E" edges="W2TL TL2E"/>
            <route id="W_S" edges="W2TL TL2S"/>
            <route id="N_W" edges="N2TL TL2W"/>
            <route id="N_E" edges="N2TL TL2E"/>
            <route id="N_S" edges="N2TL TL2S"/>
            <route id="E_W" edges="E2TL TL2W"/>
            <route id="E_N" edges="E2TL TL2N"/>
            <route id="E_S" edges="E2TL TL2S"/>
            <route id="S_W" edges="S2TL TL2W"/>
            <route id="S_N" edges="S2TL TL2N"/>
            <route id="S_E" edges="S2TL TL2E"/>
    <vehicle id="E_N_0" type="motorbike" route="E_N" depart="23.0" departLane="0" departSpeed="10" />
    <vehicle id="W_E_1" type="motorbike" route="W_E" depart="37.0" departLane="1" departSpeed="10" />
    <vehicle id="E_W_2" type="bicycle" route="E_W" depart="52.0" departLane="0" departSpeed="10" />
    <vehicle id="N_S_3" type="bicycle" route="N_S" depart="62.0" departLane="0" departSpeed="10" />
    <vehicle id="W_E_4" type="bicycle" route="W_E" depart="69.0" departLane="0" departSpeed="10" />
    <vehicle id="W_E_5" type="motorbike" route="W_E" depart="72.0" departLane="1" departSpeed="10" />
    <vehicle id="E_W_6" type="motorbike" route="E_W" depart="89.0" departLane="0" departSpeed="10" />
    <vehicle id="N_S_7" type="car" route="N_S" depart="107.0" departLane="2" departSpeed="10" />
    <vehicle id="W_E_8" type="motorbike" route="W_E" depart="109.0" departLane="1" departSpeed="10" />
    <vehicle id="N_S_9" type="bicycle" route="N_S" depart="110.0" departLane="0" departSpeed="10" />
    <vehicle id="W_N_10" type="car" route="W_N" depart="111.0" departLane="1" departSpeed="10" />
    <vehicle id="E_W_11" type="motorbike" route="E_W" depart="115.0" departLane="0" departSpeed="10" />
    <vehicle id="W_E_12" type="bicycle" route="W_E" depart="125.0" departLane="0" departSpeed="10" />
    <vehicle id="S_N_13" type="car" route="S_N" depart="128.0" departLane="1" departSpeed="10" />
    <vehicle id="E_W_14" type="car" route="E_W" depart="129.0" departLane="3" departSpeed="10" />
    <vehicle id="E_W_15" type="bicycle" route="E_W" depart="130.0" departLane="0" departSpeed="10" />
    <vehicle id="S_N_16" type="car" route="S_N" depart="137.0" departLane="2" departSpeed="10" />
    <vehicle id="E_W_17" type="motorbike" route="E_W" depart="138.0" departLane="1" departSpeed="10" />
    <vehicle id="S_N_18" type="car" route="S_N" depart="139.0" departLane="2" departSpeed="10" />
    <vehicle id="E_N_19" type="motorbike" route="E_N" depart="139.0" departLane="1" departSpeed="10" />
    <vehicle id="S_N_20" type="motorbike" route="S_N" depart="143.0" departLane="1" departSpeed="10" />
    <vehicle id="W_E_21" type="bicycle" route="W_E" depart="143.0" departLane="0" departSpeed="10" />
    <vehicle id="S_N_22" type="car" route="S_N" depart="144.0" departLane="1" departSpeed="10" />
    <vehicle id="E_W_23" type="bicycle" route="E_W" depart="157.0" departLane="0" departSpeed="10" />
    <vehicle id="S_N_24" type="motorbike" route="S_N" depart="158.0" departLane="1" departSpeed="10" />
    <vehicle id="E_W_25" type="bicycle" route="E_W" depart="161.0" departLane="0" departSpeed="10" />
    <vehicle id="W_E_26" type="car" route="W_E" depart="171.0" departLane="2" departSpeed="10" />
    <vehicle id="W_E_27" type="motorbike" route="W_E" depart="172.0" departLane="0" departSpeed="10" />
    <vehicle id="N_S_28" type="car" route="N_S" depart="174.0" departLane="1" departSpeed="10" />
    <vehicle id="S_N_29" type="bicycle" route="S_N" depart="175.0" departLane="0" departSpeed="10" />
    <vehicle id="W_E_30" type="bicycle" route="W_E" depart="180.0" departLane="0" departSpeed="10" />
    <vehicle id="N_S_31" type="bicycle" route="N_S" depart="183.0" departLane="0" departSpeed="10" />
    <vehicle id="S_N_32" type="bicycle" route="S_N" depart="184.0" departLane="0" departSpeed="10" />
    <vehicle id="W_E_33" type="bicycle" route="W_E" depart="190.0" departLane="0" departSpeed="10" />
    <vehicle id="E_W_34" type="motorbike" route="E_W" depart="192.0" departLane="0" departSpeed="10" />
    <vehicle id="S_W_35" type="car" route="S_W" depart="198.0" departLane="1" departSpeed="10" />
    <vehicle id="S_N_36" type="bicycle" route="S_N" depart="200.0" departLane="0" departSpeed="10" />
    <vehicle id="E_S_37" type="bicycle" route="E_S" depart="201.0" departLane="0" departSpeed="10" />
    <vehicle id="S_N_38" type="car" route="S_N" depart="202.0" departLane="2" departSpeed="10" />
    <vehicle id="N_E_39" type="car" route="N_E" depart="209.0" departLane="1" departSpeed="10" />
    <vehicle id="S_N_40" type="car" route="S_N" depart="214.0" departLane="2" departSpeed="10" />
    <vehicle id="N_S_41" type="car" route="N_S" depart="217.0" departLane="1" departSpeed="10" />
    <vehicle id="S_W_42" type="motorbike" route="S_W" depart="219.0" departLane="0" departSpeed="10" />
    <vehicle id="E_W_43" type="motorbike" route="E_W" depart="223.0" departLane="0" departSpeed="10" />
    <vehicle id="N_S_44" type="motorbike" route="N_S" depart="225.0" departLane="0" departSpeed="10" />
    <vehicle id="W_E_45" type="motorbike" route="W_E" depart="234.0" departLane="0" departSpeed="10" />
    <vehicle id="E_W_46" type="bicycle" route="E_W" depart="236.0" departLane="0" departSpeed="10" />
    <vehicle id="N_W_47" type="car" route="N_W" depart="239.0" departLane="1" departSpeed="10" />
    <vehicle id="S_E_48" type="bicycle" route="S_E" depart="242.0" departLane="0" departSpeed="10" />
    <vehicle id="W_S_49" type="motorbike" route="W_S" depart="242.0" departLane="1" departSpeed="10" />
    <vehicle id="S_N_50" type="motorbike" route="S_N" depart="245.0" departLane="1" departSpeed="10" />
    <vehicle id="E_N_51" type="motorbike" route="E_N" depart="245.0" departLane="0" departSpeed="10" />
    <vehicle id="E_W_52" type="bicycle" route="E_W" depart="246.0" departLane="0" departSpeed="10" />
    <vehicle id="W_E_53" type="car" route="W_E" depart="247.0" departLane="2" departSpeed="10" />
    <vehicle id="E_S_54" type="car" route="E_S" depart="249.0" departLane="1" departSpeed="10" />
    <vehicle id="S_W_55" type="bicycle" route="S_W" depart="249.0" departLane="0" departSpeed="10" />
    <vehicle id="N_S_56" type="car" route="N_S" depart="251.0" departLane="1" departSpeed="10" />
    <vehicle id="S_N_57" type="car" route="S_N" depart="254.0" departLane="2" departSpeed="10" />
    <vehicle id="E_W_58" type="bicycle" route="E_W" depart="254.0" departLane="0" departSpeed="10" />
    <vehicle id="W_E_59" type="motorbike" route="W_E" depart="256.0" departLane="1" departSpeed="10" />
    <vehicle id="E_N_60" type="bicycle" route="E_N" depart="256.0" departLane="0" departSpeed="10" />
    <vehicle id="S_N_61" type="bicycle" route="S_N" depart="257.0" departLane="0" departSpeed="10" />
    <vehicle id="S_N_62" type="motorbike" route="S_N" depart="257.0" departLane="1" departSpeed="10" />
    <vehicle id="W_S_63" type="motorbike" route="W_S" depart="260.0" departLane="1" departSpeed="10" />
    <vehicle id="S_N_64" type="bicycle" route="S_N" depart="260.0" departLane="0" departSpeed="10" />
    <vehicle id="S_N_65" type="motorbike" route="S_N" depart="262.0" departLane="1" departSpeed="10" />
    <vehicle id="E_W_66" type="bicycle" route="E_W" depart="264.0" departLane="0" departSpeed="10" />
    <vehicle id="S_E_67" type="bicycle" route="S_E" depart="266.0" departLane="0" departSpeed="10" />
    <vehicle id="S_N_68" type="bicycle" route="S_N" depart="267.0" departLane="0" departSpeed="10" />
    <vehicle id="E_W_69" type="motorbike" route="E_W" depart="268.0" departLane="1" departSpeed="10" />
    <vehicle id="E_W_70" type="bicycle" route="E_W" depart="268.0" departLane="0" departSpeed="10" />
    <vehicle id="W_E_71" type="bicycle" route="W_E" depart="269.0" departLane="0" departSpeed="10" />
    <vehicle id="N_S_72" type="car" route="N_S" depart="271.0" departLane="1" departSpeed="10" />
    <vehicle id="E_W_73" type="motorbike" route="E_W" depart="271.0" departLane="0" departSpeed="10" />
    <vehicle id="S_E_74" type="motorbike" route="S_E" depart="280.0" departLane="1" departSpeed="10" />
    <vehicle id="N_S_75" type="car" route="N_S" depart="282.0" departLane="1" departSpeed="10" />
    <vehicle id="E_W_76" type="motorbike" route="E_W" depart="283.0" departLane="0" departSpeed="10" />
    <vehicle id="W_E_77" type="bicycle" route="W_E" depart="288.0" departLane="0" departSpeed="10" />
    <vehicle id="S_N_78" type="bicycle" route="S_N" depart="290.0" departLane="0" departSpeed="10" />
    <vehicle id="W_E_79" type="bicycle" route="W_E" depart="291.0" departLane="0" departSpeed="10" />
    <vehicle id="S_N_80" type="bicycle" route="S_N" depart="291.0" departLane="0" departSpeed="10" />
    <vehicle id="E_S_81" type="motorbike" route="E_S" depart="295.0" departLane="1" departSpeed="10" />
    <vehicle id="N_S_82" type="car" route="N_S" depart="299.0" departLane="2" departSpeed="10" />
    <vehicle id="S_N_83" type="bicycle" route="S_N" depart="302.0" departLane="0" departSpeed="10" />
    <vehicle id="E_W_84" type="bicycle" route="E_W" depart="306.0" departLane="0" departSpeed="10" />
    <vehicle id="E_W_85" type="bicycle" route="E_W" depart="306.0" departLane="0" departSpeed="10" />
    <vehicle id="W_E_86" type="motorbike" route="W_E" depart="309.0" departLane="0" departSpeed="10" />
    <vehicle id="W_E_87" type="bicycle" route="W_E" depart="314.0" departLane="0" departSpeed="10" />
    <vehicle id="W_S_88" type="car" route="W_S" depart="318.0" departLane="1" departSpeed="10" />
    <vehicle id="W_N_89" type="motorbike" route="W_N" depart="318.0" departLane="0" departSpeed="10" />
    <vehicle id="W_E_90" type="motorbike" route="W_E" depart="319.0" departLane="1" departSpeed="10" />
    <vehicle id="E_W_91" type="car" route="E_W" depart="320.0" departLane="3" departSpeed="10" />
    <vehicle id="S_N_92" type="car" route="S_N" depart="320.0" departLane="2" departSpeed="10" />
    <vehicle id="E_W_93" type="car" route="E_W" depart="320.0" departLane="3" departSpeed="10" />
    <vehicle id="E_W_94" type="car" route="E_W" depart="321.0" departLane="1" departSpeed="10" />
    <vehicle id="S_N_95" type="bicycle" route="S_N" depart="321.0" departLane="0" departSpeed="10" />
    <vehicle id="N_S_96" type="bicycle" route="N_S" depart="324.0" departLane="0" departSpeed="10" />
    <vehicle id="N_S_97" type="car" route="N_S" depart="324.0" departLane="1" departSpeed="10" />
    <vehicle id="E_S_98" type="motorbike" route="E_S" depart="325.0" departLane="0" departSpeed="10" />
    <vehicle id="E_N_99" type="motorbike" route="E_N" depart="325.0" departLane="0" departSpeed="10" />
    <vehicle id="S_N_100" type="bicycle" route="S_N" depart="325.0" departLane="0" departSpeed="10" />
    <vehicle id="E_W_101" type="bicycle" route="E_W" depart="328.0" departLane="0" departSpeed="10" />
    <vehicle id="E_S_102" type="motorbike" route="E_S" depart="329.0" departLane="1" departSpeed="10" />
    <vehicle id="W_E_103" type="car" route="W_E" depart="330.0" departLane="3" departSpeed="10" />
    <vehicle id="E_W_104" type="car" route="E_W" depart="332.0" departLane="1" departSpeed="10" />
    <vehicle id="W_E_105" type="bicycle" route="W_E" depart="335.0" departLane="0" departSpeed="10" />
    <vehicle id="S_E_106" type="motorbike" route="S_E" depart="336.0" departLane="0" departSpeed="10" />
    <vehicle id="N_S_107" type="motorbike" route="N_S" depart="337.0" departLane="1" departSpeed="10" />
    <vehicle id="S_N_108" type="car" route="S_N" depart="337.0" departLane="1" departSpeed="10" />
    <vehicle id="E_W_109" type="bicycle" route="E_W" depart="341.0" departLane="0" departSpeed="10" />
    <vehicle id="S_N_110" type="bicycle" route="S_N" depart="342.0" departLane="0" departSpeed="10" />
    <vehicle id="N_S_111" type="bicycle" route="N_S" depart="342.0" departLane="0" departSpeed="10" />
    <vehicle id="N_S_112" type="car" route="N_S" depart="344.0" departLane="1" departSpeed="10" />
    <vehicle id="S_N_113" type="bicycle" route="S_N" depart="345.0" departLane="0" departSpeed="10" />
    <vehicle id="S_N_114" type="car" route="S_N" depart="350.0" departLane="1" departSpeed="10" />
    <vehicle id="E_N_115" type="bicycle" route="E_N" depart="351.0" departLane="0" departSpeed="10" />
    <vehicle id="E_W_116" type="motorbike" route="E_W" depart="351.0" departLane="0" departSpeed="10" />
    <vehicle id="E_N_117" type="motorbike" route="E_N" depart="351.0" departLane="0" departSpeed="10" />
    <vehicle id="E_N_118" type="car" route="E_N" depart="351.0" departLane="2" departSpeed="10" />
    <vehicle id="S_E_119" type="bicycle" route="S_E" depart="353.0" departLane="0" departSpeed="10" />
    <vehicle id="S_E_120" type="bicycle" route="S_E" depart="353.0" departLane="0" departSpeed="10" />
    <vehicle id="N_S_121" type="bicycle" route="N_S" depart="353.0" departLane="0" departSpeed="10" />
    <vehicle id="N_S_122" type="bicycle" route="N_S" depart="354.0" departLane="0" departSpeed="10" />
    <vehicle id="N_S_123" type="car" route="N_S" depart="354.0" departLane="2" departSpeed="10" />
    <vehicle id="W_E_124" type="bicycle" route="W_E" depart="355.0" departLane="0" departSpeed="10" />
    <vehicle id="E_W_125" type="bicycle" route="E_W" depart="356.0" departLane="0" departSpeed="10" />
    <vehicle id="S_N_126" type="car" route="S_N" depart="358.0" departLane="1" departSpeed="10" />
    <vehicle id="E_S_127" type="bicycle" route="E_S" depart="358.0" departLane="0" departSpeed="10" />
    <vehicle id="W_S_128" type="motorbike" route="W_S" depart="364.0" departLane="1" departSpeed="10" />
    <vehicle id="E_S_129" type="motorbike" route="E_S" depart="371.0" departLane="0" departSpeed="10" />
    <vehicle id="W_N_130" type="car" route="W_N" depart="372.0" departLane="2" departSpeed="10" />
    <vehicle id="S_N_131" type="motorbike" route="S_N" depart="375.0" departLane="0" departSpeed="10" />
    <vehicle id="N_S_132" type="motorbike" route="N_S" depart="375.0" departLane="0" departSpeed="10" />
    <vehicle id="E_W_133" type="car" route="E_W" depart="375.0" departLane="2" departSpeed="10" />
    <vehicle id="E_S_134" type="car" route="E_S" depart="376.0" departLane="3" departSpeed="10" />
    <vehicle id="W_S_135" type="motorbike" route="W_S" depart="376.0" departLane="1" departSpeed="10" />
    <vehicle id="W_E_136" type="motorbike" route="W_E" depart="377.0" departLane="1" departSpeed="10" />
    <vehicle id="W_E_137" type="car" route="W_E" depart="378.0" departLane="2" departSpeed="10" />
    <vehicle id="N_S_138" type="bicycle" route="N_S" depart="378.0" departLane="0" departSpeed="10" />
    <vehicle id="N_W_139" type="car" route="N_W" depart="382.0" departLane="1" departSpeed="10" />
    <vehicle id="W_S_140" type="motorbike" route="W_S" depart="384.0" departLane="0" departSpeed="10" />
    <vehicle id="W_E_141" type="motorbike" route="W_E" depart="386.0" departLane="0" departSpeed="10" />
    <vehicle id="W_N_142" type="motorbike" route="W_N" depart="387.0" departLane="1" departSpeed="10" />
    <vehicle id="N_S_143" type="motorbike" route="N_S" depart="389.0" departLane="0" departSpeed="10" />
    <vehicle id="N_S_144" type="bicycle" route="N_S" depart="389.0" departLane="0" departSpeed="10" />
    <vehicle id="E_S_145" type="bicycle" route="E_S" depart="391.0" departLane="0" departSpeed="10" />
    <vehicle id="S_W_146" type="motorbike" route="S_W" depart="393.0" departLane="1" departSpeed="10" />
    <vehicle id="N_S_147" type="motorbike" route="N_S" depart="396.0" departLane="1" departSpeed="10" />
    <vehicle id="S_N_148" type="car" route="S_N" depart="399.0" departLane="2" departSpeed="10" />
    <vehicle id="E_N_149" type="motorbike" route="E_N" depart="400.0" departLane="1" departSpeed="10" />
    <vehicle id="N_W_150" type="car" route="N_W" depart="400.0" departLane="1" departSpeed="10" />
    <vehicle id="S_N_151" type="car" route="S_N" depart="400.0" departLane="2" departSpeed="10" />
    <vehicle id="S_N_152" type="motorbike" route="S_N" depart="400.0" departLane="0" departSpeed="10" />
    <vehicle id="N_S_153" type="car" route="N_S" depart="402.0" departLane="2" departSpeed="10" />
    <vehicle id="W_E_154" type="car" route="W_E" depart="404.0" departLane="2" departSpeed="10" />
    <vehicle id="W_E_155" type="bicycle" route="W_E" depart="407.0" departLane="0" departSpeed="10" />
    <vehicle id="N_W_156" type="car" route="N_W" depart="408.0" departLane="2" departSpeed="10" />
    <vehicle id="S_N_157" type="bicycle" route="S_N" depart="412.0" departLane="0" departSpeed="10" />
    <vehicle id="S_W_158" type="bicycle" route="S_W" depart="416.0" departLane="0" departSpeed="10" />
    <vehicle id="W_N_159" type="motorbike" route="W_N" depart="416.0" departLane="0" departSpeed="10" />
    <vehicle id="E_S_160" type="car" route="E_S" depart="417.0" departLane="2" departSpeed="10" />
    <vehicle id="E_W_161" type="bicycle" route="E_W" depart="417.0" departLane="0" departSpeed="10" />
    <vehicle id="N_S_162" type="bicycle" route="N_S" depart="418.0" departLane="0" departSpeed="10" />
    <vehicle id="S_N_163" type="car" route="S_N" depart="418.0" departLane="1" departSpeed="10" />
    <vehicle id="W_E_164" type="motorbike" route="W_E" depart="418.0" departLane="1" departSpeed="10" />
    <vehicle id="E_W_165" type="motorbike" route="E_W" depart="419.0" departLane="1" departSpeed="10" />
    <vehicle id="W_E_166" type="bicycle" route="W_E" depart="421.0" departLane="0" departSpeed="10" />
    <vehicle id="W_N_167" type="motorbike" route="W_N" depart="421.0" departLane="1" departSpeed="10" />
    <vehicle id="E_W_168" type="motorbike" route="E_W" depart="421.0" departLane="1" departSpeed="10" />
    <vehicle id="E_W_169" type="motorbike" route="E_W" depart="422.0" departLane="0" departSpeed="10" />
    <vehicle id="N_S_170" type="motorbike" route="N_S" depart="424.0" departLane="1" departSpeed="10" />
    <vehicle id="N_S_171" type="bicycle" route="N_S" depart="426.0" departLane="0" departSpeed="10" />
    <vehicle id="S_N_172" type="car" route="S_N" depart="430.0" departLane="1" departSpeed="10" />
    <vehicle id="S_W_173" type="bicycle" route="S_W" depart="434.0" departLane="0" departSpeed="10" />
    <vehicle id="W_E_174" type="bicycle" route="W_E" depart="434.0" departLane="0" departSpeed="10" />
    <vehicle id="N_S_175" type="car" route="N_S" depart="436.0" departLane="1" departSpeed="10" />
    <vehicle id="E_W_176" type="motorbike" route="E_W" depart="438.0" departLane="0" departSpeed="10" />
    <vehicle id="W_S_177" type="bicycle" route="W_S" depart="438.0" departLane="0" departSpeed="10" />
    <vehicle id="W_E_178" type="bicycle" route="W_E" depart="439.0" departLane="0" departSpeed="10" />
    <vehicle id="N_E_179" type="car" route="N_E" depart="441.0" departLane="2" departSpeed="10" />
    <vehicle id="S_N_180" type="bicycle" route="S_N" depart="441.0" departLane="0" departSpeed="10" />
    <vehicle id="S_N_181" type="bicycle" route="S_N" depart="444.0" departLane="0" departSpeed="10" />
    <vehicle id="E_S_182" type="bicycle" route="E_S" depart="445.0" departLane="0" departSpeed="10" />
    <vehicle id="S_N_183" type="car" route="S_N" depart="445.0" departLane="2" departSpeed="10" />
    <vehicle id="S_N_184" type="bicycle" route="S_N" depart="447.0" departLane="0" departSpeed="10" />
    <vehicle id="E_N_185" type="motorbike" route="E_N" depart="450.0" departLane="1" departSpeed="10" />
    <vehicle id="E_S_186" type="car" route="E_S" depart="450.0" departLane="1" departSpeed="10" />
    <vehicle id="N_E_187" type="motorbike" route="N_E" depart="450.0" departLane="1" departSpeed="10" />
    <vehicle id="S_N_188" type="motorbike" route="S_N" depart="453.0" departLane="1" departSpeed="10" />
    <vehicle id="N_S_189" type="bicycle" route="N_S" depart="453.0" departLane="0" departSpeed="10" />
    <vehicle id="N_S_190" type="bicycle" route="N_S" depart="453.0" departLane="0" departSpeed="10" />
    <vehicle id="N_S_191" type="car" route="N_S" depart="454.0" departLane="2" departSpeed="10" />
    <vehicle id="W_E_192" type="car" route="W_E" depart="455.0" departLane="2" departSpeed="10" />
    <vehicle id="E_W_193" type="car" route="E_W" depart="459.0" departLane="1" departSpeed="10" />
    <vehicle id="N_S_194" type="bicycle" route="N_S" depart="460.0" departLane="0" departSpeed="10" />
    <vehicle id="W_E_195" type="bicycle" route="W_E" depart="468.0" departLane="0" departSpeed="10" />
    <vehicle id="W_N_196" type="motorbike" route="W_N" depart="468.0" departLane="1" departSpeed="10" />
    <vehicle id="S_N_197" type="motorbike" route="S_N" depart="469.0" departLane="0" departSpeed="10" />
    <vehicle id="E_W_198" type="car" route="E_W" depart="472.0" departLane="1" departSpeed="10" />
    <vehicle id="W_E_199" type="bicycle" route="W_E" depart="472.0" departLane="0" departSpeed="10" />
    <vehicle id="N_S_200" type="bicycle" route="N_S" depart="479.0" departLane="0" departSpeed="10" />
    <vehicle id="N_E_201" type="car" route="N_E" depart="482.0" departLane="2" departSpeed="10" />
    <vehicle id="N_S_202" type="bicycle" route="N_S" depart="483.0" departLane="0" departSpeed="10" />
    <vehicle id="E_W_203" type="car" route="E_W" depart="484.0" departLane="2" departSpeed="10" />
    <vehicle id="S_N_204" type="bicycle" route="S_N" depart="485.0" departLane="0" departSpeed="10" />
    <vehicle id="S_N_205" type="car" route="S_N" depart="485.0" departLane="1" departSpeed="10" />
    <vehicle id="N_E_206" type="motorbike" route="N_E" depart="486.0" departLane="1" departSpeed="10" />
    <vehicle id="E_N_207" type="car" route="E_N" depart="487.0" departLane="1" departSpeed="10" />
    <vehicle id="E_W_208" type="car" route="E_W" depart="489.0" departLane="3" departSpeed="10" />
    <vehicle id="W_E_209" type="bicycle" route="W_E" depart="490.0" departLane="0" departSpeed="10" />
    <vehicle id="N_S_210" type="motorbike" route="N_S" depart="490.0" departLane="0" departSpeed="10" />
    <vehicle id="W_N_211" type="motorbike" route="W_N" depart="493.0" departLane="1" departSpeed="10" />
    <vehicle id="N_W_212" type="motorbike" route="N_W" depart="493.0" departLane="1" departSpeed="10" />
    <vehicle id="E_S_213" type="motorbike" route="E_S" depart="494.0" departLane="0" departSpeed="10" />
    <vehicle id="N_S_214" type="car" route="N_S" depart="494.0" departLane="2" departSpeed="10" />
    <vehicle id="S_N_215" type="motorbike" route="S_N" depart="494.0" departLane="0" departSpeed="10" />
    <vehicle id="S_N_216" type="motorbike" route="S_N" depart="495.0" departLane="0" departSpeed="10" />
    <vehicle id="W_E_217" type="motorbike" route="W_E" depart="499.0" departLane="0" departSpeed="10" />
    <vehicle id="S_E_218" type="bicycle" route="S_E" depart="500.0" departLane="0" departSpeed="10" />
    <vehicle id="N_E_219" type="car" route="N_E" depart="500.0" departLane="2" departSpeed="10" />
    <vehicle id="E_W_220" type="motorbike" route="E_W" depart="502.0" departLane="1" departSpeed="10" />
    <vehicle id="W_E_221" type="car" route="W_E" depart="502.0" departLane="2" departSpeed="10" />
    <vehicle id="S_N_222" type="motorbike" route="S_N" depart="503.0" departLane="1" departSpeed="10" />
    <vehicle id="W_E_223" type="bicycle" route="W_E" depart="504.0" departLane="0" departSpeed="10" />
    <vehicle id="N_S_224" type="bicycle" route="N_S" depart="508.0" departLane="0" departSpeed="10" />
    <vehicle id="W_E_225" type="motorbike" route="W_E" depart="508.0" departLane="0" departSpeed="10" />
    <vehicle id="E_W_226" type="motorbike" route="E_W" depart="508.0" departLane="1" departSpeed="10" />
    <vehicle id="W_E_227" type="motorbike" route="W_E" depart="510.0" departLane="0" departSpeed="10" />
    <vehicle id="N_S_228" type="motorbike" route="N_S" depart="511.0" departLane="0" departSpeed="10" />
    <vehicle id="N_E_229" type="motorbike" route="N_E" depart="513.0" departLane="1" departSpeed="10" />
    <vehicle id="N_S_230" type="car" route="N_S" depart="514.0" departLane="2" departSpeed="10" />
    <vehicle id="W_E_231" type="bicycle" route="W_E" depart="515.0" departLane="0" departSpeed="10" />
    <vehicle id="E_W_232" type="motorbike" route="E_W" depart="515.0" departLane="0" departSpeed="10" />
    <vehicle id="N_S_233" type="car" route="N_S" depart="516.0" departLane="2" departSpeed="10" />
    <vehicle id="N_S_234" type="motorbike" route="N_S" depart="521.0" departLane="1" departSpeed="10" />
    <vehicle id="E_W_235" type="bicycle" route="E_W" depart="521.0" departLane="0" departSpeed="10" />
    <vehicle id="W_N_236" type="bicycle" route="W_N" depart="521.0" departLane="0" departSpeed="10" />
    <vehicle id="S_N_237" type="car" route="S_N" depart="522.0" departLane="2" departSpeed="10" />
    <vehicle id="E_N_238" type="car" route="E_N" depart="524.0" departLane="1" departSpeed="10" />
    <vehicle id="S_N_239" type="motorbike" route="S_N" depart="525.0" departLane="0" departSpeed="10" />
    <vehicle id="E_N_240" type="bicycle" route="E_N" depart="526.0" departLane="0" departSpeed="10" />
    <vehicle id="E_W_241" type="car" route="E_W" depart="526.0" departLane="2" departSpeed="10" />
    <vehicle id="W_E_242" type="car" route="W_E" depart="526.0" departLane="3" departSpeed="10" />
    <vehicle id="W_E_243" type="car" route="W_E" depart="527.0" departLane="2" departSpeed="10" />
    <vehicle id="S_N_244" type="motorbike" route="S_N" depart="529.0" departLane="1" departSpeed="10" />
    <vehicle id="S_N_245" type="bicycle" route="S_N" depart="530.0" departLane="0" departSpeed="10" />
    <vehicle id="W_E_246" type="bicycle" route="W_E" depart="531.0" departLane="0" departSpeed="10" />
    <vehicle id="W_N_247" type="car" route="W_N" depart="531.0" departLane="2" departSpeed="10" />
    <vehicle id="E_N_248" type="car" route="E_N" depart="532.0" departLane="1" departSpeed="10" />
    <vehicle id="E_W_249" type="car" route="E_W" depart="533.0" departLane="2" departSpeed="10" />
    <vehicle id="S_N_250" type="motorbike" route="S_N" depart="533.0" departLane="1" departSpeed="10" />
    <vehicle id="S_N_251" type="car" route="S_N" depart="534.0" departLane="1" departSpeed="10" />
    <vehicle id="E_S_252" type="car" route="E_S" depart="535.0" departLane="3" departSpeed="10" />
    <vehicle id="N_S_253" type="car" route="N_S" depart="536.0" departLane="2" departSpeed="10" />
    <vehicle id="N_S_254" type="car" route="N_S" depart="537.0" departLane="2" departSpeed="10" />
    <vehicle id="N_S_255" type="car" route="N_S" depart="539.0" departLane="1" departSpeed="10" />
    <vehicle id="S_N_256" type="car" route="S_N" depart="540.0" departLane="2" departSpeed="10" />
    <vehicle id="S_W_257" type="bicycle" route="S_W" depart="540.0" departLane="0" departSpeed="10" />
    <vehicle id="S_N_258" type="car" route="S_N" depart="541.0" departLane="2" departSpeed="10" />
    <vehicle id="W_E_259" type="motorbike" route="W_E" depart="541.0" departLane="1" departSpeed="10" />
    <vehicle id="N_S_260" type="bicycle" route="N_S" depart="542.0" departLane="0" departSpeed="10" />
    <vehicle id="W_E_261" type="motorbike" route="W_E" depart="545.0" departLane="0" departSpeed="10" />
    <vehicle id="S_N_262" type="bicycle" route="S_N" depart="547.0" departLane="0" departSpeed="10" />
    <vehicle id="W_E_263" type="bicycle" route="W_E" depart="548.0" departLane="0" departSpeed="10" />
    <vehicle id="E_S_264" type="bicycle" route="E_S" depart="550.0" departLane="0" departSpeed="10" />
    <vehicle id="W_E_265" type="car" route="W_E" depart="551.0" departLane="2" departSpeed="10" />
    <vehicle id="S_W_266" type="motorbike" route="S_W" depart="553.0" departLane="0" departSpeed="10" />
    <vehicle id="E_W_267" type="bicycle" route="E_W" depart="554.0" departLane="0" departSpeed="10" />
    <vehicle id="N_S_268" type="motorbike" route="N_S" depart="555.0" departLane="1" departSpeed="10" />
    <vehicle id="N_E_269" type="motorbike" route="N_E" depart="555.0" departLane="0" departSpeed="10" />
    <vehicle id="E_W_270" type="motorbike" route="E_W" depart="558.0" departLane="0" departSpeed="10" />
    <vehicle id="E_S_271" type="car" route="E_S" depart="561.0" departLane="2" departSpeed="10" />
    <vehicle id="W_E_272" type="bicycle" route="W_E" depart="561.0" departLane="0" departSpeed="10" />
    <vehicle id="S_W_273" type="bicycle" route="S_W" depart="563.0" departLane="0" departSpeed="10" />
    <vehicle id="W_E_274" type="car" route="W_E" depart="563.0" departLane="3" departSpeed="10" />
    <vehicle id="E_W_275" type="motorbike" route="E_W" depart="564.0" departLane="1" departSpeed="10" />
    <vehicle id="N_S_276" type="motorbike" route="N_S" depart="564.0" departLane="0" departSpeed="10" />
    <vehicle id="S_E_277" type="bicycle" route="S_E" depart="565.0" departLane="0" departSpeed="10" />
    <vehicle id="E_W_278" type="bicycle" route="E_W" depart="567.0" departLane="0" departSpeed="10" />
    <vehicle id="E_W_279" type="bicycle" route="E_W" depart="570.0" departLane="0" departSpeed="10" />
    <vehicle id="S_N_280" type="car" route="S_N" depart="570.0" departLane="1" departSpeed="10" />